18
35diMePh.log	Energy: -195078.3408453
H          0.00223        2.86379       -0.00078
C          0.00195        1.80379       -0.00049
C          1.20384        1.11347       -0.00030
H          2.10908        1.64323       -0.00045
C          1.18933       -0.26653        0.00007
C          2.49021       -1.01688        0.00028
H          2.80836       -1.19668        1.03977
H          2.36267       -1.97698       -0.52272
H          3.26111       -0.42722       -0.51607
C          0.00121       -0.95621        0.00026
H          0.00092       -2.01621        0.00055
C         -1.20069       -0.26588        0.00007
C         -2.48783       -1.01554        0.00028
H         -2.80607       -1.19517        1.03977
H         -3.25841       -0.42547       -0.51607
H         -2.36081       -1.97571       -0.52272
C         -1.20032        1.11412       -0.00030
H         -2.10527        1.64436       -0.00045
