26
Ad.log	Energy: -245182.6302416
H         -2.15577       -1.52322       -0.00000
C         -1.25762       -0.88813       -0.00000
C         -1.25762       -0.00479        1.25865
H         -2.15577        0.64185        1.25865
H         -1.25354       -0.63410        2.15668
C         -0.00021        0.88433        1.25865
H         -0.00021        1.52519        2.14961
C         -0.00021       -1.78303       -0.00000
H          0.00387       -2.41234        0.89803
H          0.00387       -2.41234       -0.89803
C          1.25719       -0.89390        0.00000
C          1.25719        0.00676        1.25865
H          1.25719       -0.63410        2.14961
H          2.15534        0.64185        1.25865
H          2.15534       -1.52322        0.00000
C          1.25719        0.00676       -1.25865
H          2.15534        0.64185       -1.25865
H          1.25719       -0.63410       -2.14961
C         -0.00021        0.88433       -1.25865
C         -0.00021        1.78500        0.00000
H          0.89793        2.42008        0.00000
H         -0.89836        2.41431        0.00000
H         -0.00021        1.52519       -2.14961
C         -1.25762       -0.00479       -1.25865
H         -2.15577        0.64185       -1.25865
H         -1.25354       -0.63410       -2.15668
