17
CH2tBu.log	Energy: -124103.2226183
H         -1.90619        1.03912        0.00000
C         -1.54111        0.00147        0.00000
H         -1.90524       -0.51888        0.89803
H         -1.90524       -0.51888       -0.89803
C          0.00223        0.00381       -0.00000
C          0.51333        0.72428        1.25865
H          1.60999        0.71788        1.25865
H          0.14826        1.76193        1.25865
H          0.14920        0.20393        2.15668
C          0.51333       -1.44890        0.00000
H          1.60999       -1.45530       -0.00000
H          0.14253       -1.97159        0.90510
H          0.14253       -1.97159       -0.90510
C          0.51333        0.72428       -1.25865
H          1.60999        0.71788       -1.25865
H          0.14920        0.20393       -2.15668
H          0.14826        1.76193       -1.25865
